Version 4
SHEET 1 1396 824
WIRE -96 -64 -192 -64
WIRE 16 -64 -96 -64
WIRE 112 -64 16 -64
WIRE 176 -64 112 -64
WIRE 400 -64 176 -64
WIRE 400 -48 400 -64
WIRE 176 -32 176 -64
WIRE -192 -16 -192 -64
WIRE -96 -16 -96 -64
WIRE 16 -16 16 -64
WIRE 112 -16 112 -64
WIRE 992 0 960 0
WIRE 1120 0 1072 0
WIRE 400 32 352 32
WIRE 1184 48 1184 32
WIRE 1184 48 1040 48
WIRE 1040 64 1040 48
WIRE 672 80 672 -16
WIRE 752 80 672 80
WIRE 960 80 960 0
WIRE 960 80 896 80
WIRE 1008 80 960 80
WIRE 1120 96 1120 0
WIRE 1120 96 1072 96
WIRE 1232 96 1120 96
WIRE 1376 96 1312 96
WIRE 112 112 112 64
WIRE 160 112 112 112
WIRE 352 112 352 32
WIRE 352 112 304 112
WIRE 496 112 400 112
WIRE 656 112 640 112
WIRE 752 112 656 112
WIRE 928 112 896 112
WIRE 1008 112 928 112
WIRE 16 144 16 64
WIRE 160 144 16 144
WIRE 352 144 304 144
WIRE 656 144 656 112
WIRE 928 144 928 112
WIRE 1376 144 1376 96
WIRE -96 176 -96 64
WIRE 160 176 -96 176
WIRE 352 192 352 144
WIRE 400 192 352 192
WIRE -192 208 -192 64
WIRE 160 208 -192 208
WIRE 160 240 -288 240
WIRE 320 240 304 240
WIRE -848 256 -848 208
WIRE -800 256 -848 256
WIRE -608 256 -608 208
WIRE -608 256 -640 256
WIRE 320 272 320 240
WIRE -608 288 -640 288
WIRE -608 304 -608 288
FLAG 176 -32 0
FLAG 400 272 0
FLAG -368 240 0
FLAG 320 272 0
FLAG -608 304 0
FLAG 672 -96 0
FLAG 928 144 0
FLAG 656 288 0
FLAG 1376 144 0
SYMBOL AutoGenerated\\MN32xx 224 160 R0
WINDOW 3 8 72 Top 2
SYMATTR InstName U1
SYMBOL voltage 112 80 R180
WINDOW 0 24 96 Left 2
WINDOW 3 24 16 Left 2
WINDOW 123 0 0 Left 0
WINDOW 39 0 0 Left 0
SYMATTR InstName V1
SYMATTR Value 9
SYMBOL voltage 16 80 R180
WINDOW 0 24 96 Left 2
WINDOW 3 24 16 Left 2
WINDOW 123 0 0 Left 0
WINDOW 39 0 0 Left 0
SYMATTR InstName V2
SYMATTR Value 8.4
SYMBOL voltage -96 80 R180
WINDOW 0 24 96 Left 2
WINDOW 3 18 116 Left 2
WINDOW 123 0 0 Left 0
WINDOW 39 0 0 Left 0
SYMATTR InstName V3
SYMATTR Value PULSE(0 9 0 2n 2n 0.0000125 0.000025)
SYMBOL voltage -192 80 R180
WINDOW 0 24 96 Left 2
WINDOW 3 41 57 Left 2
WINDOW 123 0 0 Left 0
WINDOW 39 0 0 Left 0
SYMATTR InstName V4
SYMATTR Value PULSE(0 9 0.0000125 2n 2n 0.0000125 0.000025)
SYMBOL voltage -272 240 R90
WINDOW 0 30 106 VRight 2
WINDOW 3 64 31 VRight 2
WINDOW 123 0 0 Left 0
WINDOW 39 0 0 Left 0
SYMATTR InstName V5
SYMATTR Value SINE(5 0.5 440 0)
SYMBOL res 384 16 R0
SYMATTR InstName R1
SYMATTR Value 5.6k
SYMBOL res 384 96 R0
SYMATTR InstName R2
SYMATTR Value 5.6k
SYMBOL res 384 176 R0
SYMATTR InstName R3
SYMATTR Value 100k
SYMBOL res 384 -64 R0
SYMATTR InstName R4
SYMATTR Value 100k
SYMBOL cap 560 96 R90
WINDOW 0 0 32 VBottom 2
WINDOW 3 32 32 VTop 2
SYMATTR InstName C1
SYMATTR Value 220n
SYMBOL AutoGenerated\\v2164_amp 816 96 R0
SYMATTR InstName U2
SYMBOL AutoGenerated\\v2164_bias -720 272 R0
SYMATTR InstName U3
SYMBOL Vcc -848 144 R0
SYMATTR Value Vcc=9
SYMATTR InstName U4
SYMBOL Vcc_ -608 176 R0
SYMATTR Value Vcc=-9V
SYMATTR InstName U5
SYMBOL voltage 672 0 R180
WINDOW 0 24 96 Left 2
WINDOW 3 24 16 Left 2
WINDOW 123 0 0 Left 0
WINDOW 39 0 0 Left 0
SYMATTR InstName V6
SYMATTR Value 0
SYMBOL res 656 96 R90
WINDOW 0 0 56 VBottom 2
WINDOW 3 32 56 VTop 2
SYMATTR InstName R5
SYMATTR Value 27k
SYMBOL res 640 128 R0
SYMATTR InstName R6
SYMATTR Value 470
SYMBOL cap 640 224 R0
WINDOW 0 38 14 Left 2
WINDOW 3 36 48 Left 2
SYMATTR InstName C2
SYMATTR Value 560p
SYMBOL ZZZ\\OpAmp\\LM358 1040 96 R0
SYMATTR InstName U6
SYMBOL res 1088 -16 R90
WINDOW 0 0 56 VBottom 2
WINDOW 3 32 56 VTop 2
SYMATTR InstName R7
SYMATTR Value 27k
SYMBOL Vcc_ 1040 160 R180
SYMATTR Value Vcc=-9V
SYMATTR InstName U7
SYMBOL Vcc 1184 -32 R0
SYMATTR Value Vcc=9
SYMATTR InstName U8
SYMBOL res 1328 80 R90
WINDOW 0 0 56 VBottom 2
WINDOW 3 32 56 VTop 2
SYMATTR InstName R8
SYMATTR Value 1k
TEXT 106 336 Left 2 !.tran 0 70m 50m
