Version 4
SHEET 1 1508 680
WIRE 1040 -176 1040 -208
WIRE 1120 -176 1040 -176
WIRE 1344 -176 1344 -208
WIRE 1344 -176 1280 -176
WIRE 1120 -144 1072 -144
WIRE 1296 -144 1280 -144
WIRE 1344 -144 1296 -144
WIRE 1072 -96 1072 -144
WIRE 1296 -96 1296 -144
WIRE 1296 -96 1072 -96
WIRE 1344 -96 1344 -144
WIRE 272 -64 192 -64
WIRE 192 -32 192 -64
WIRE 272 -32 272 -64
WIRE 112 160 -464 160
WIRE 192 160 192 48
WIRE 288 160 192 160
WIRE 480 160 368 160
WIRE -464 176 -464 160
WIRE 832 176 656 176
WIRE 976 176 832 176
WIRE 976 192 976 176
WIRE -48 272 -48 240
WIRE 32 272 -48 272
WIRE 192 272 192 160
WIRE 192 272 176 272
WIRE 240 272 192 272
WIRE 656 272 656 176
WIRE -352 304 -464 304
WIRE -192 304 -272 304
WIRE 32 304 -192 304
WIRE 192 304 176 304
WIRE 240 304 240 272
WIRE 288 304 240 304
WIRE -464 320 -464 304
WIRE 480 320 480 160
WIRE 480 320 352 320
WIRE 528 320 480 320
WIRE 624 320 592 320
WIRE 976 320 976 256
WIRE 976 320 624 320
WIRE 1040 320 976 320
WIRE 192 336 192 304
WIRE 288 336 192 336
WIRE 192 352 192 336
WIRE 976 352 976 320
WIRE 656 432 656 368
WIRE 976 432 976 416
WIRE 1120 432 1120 320
FLAG 1344 -96 0
FLAG -192 448 0
FLAG 192 352 0
FLAG -464 400 0
FLAG -464 256 0
FLAG 976 432 0
FLAG 1120 432 0
FLAG 656 432 0
FLAG 272 -32 0
SYMBOL Vcc 1040 -272 R0
SYMATTR InstName U3
SYMBOL Vcc -48 176 R0
SYMATTR Value Vcc=-0
SYMATTR InstName U5
SYMBOL res -208 288 R0
SYMATTR InstName R1
SYMATTR Value 27k
SYMBOL res -256 288 R90
WINDOW 0 0 56 VBottom 2
WINDOW 3 32 56 VTop 2
SYMATTR InstName R2
SYMATTR Value 27k
SYMBOL cap -208 384 R0
SYMATTR InstName C1
SYMATTR Value 560p
SYMBOL ZZZ\\OpAmp\\LM358 320 320 R0
SYMATTR InstName U6
SYMBOL Vcc 320 224 R0
SYMATTR InstName U7
SYMBOL res 384 144 R90
WINDOW 0 0 56 VBottom 2
WINDOW 3 32 56 VTop 2
SYMATTR InstName R3
SYMATTR Value 27k
SYMBOL voltage -464 304 R0
WINDOW 123 0 0 Left 0
WINDOW 39 24 124 Left 2
SYMATTR InstName V1
SYMATTR Value SINE(0 .1 440)
SYMATTR SpiceLine Rser=10k
SYMBOL Vcc_ 320 384 R180
SYMATTR Value Vcc=-5V
SYMATTR InstName U9
SYMBOL Vcc_ 1344 -240 R0
SYMATTR Value Vcc=-5V
SYMATTR InstName U4
SYMBOL AutoGenerated\\v2164_amp 96 288 R0
SYMATTR InstName U1
SYMBOL AutoGenerated\\v2164_bias 1200 -160 R0
SYMATTR InstName U2
SYMBOL res 208 144 R90
WINDOW 0 0 56 VBottom 2
WINDOW 3 32 56 VTop 2
SYMATTR InstName R5
SYMATTR Value 27k
SYMBOL pot 656 320 R0
SYMATTR InstName U8
SYMATTR Value R=100k
SYMATTR Value2 T=.9
SYMBOL zener 992 256 R180
WINDOW 0 24 64 Left 2
WINDOW 3 24 0 Left 2
SYMATTR InstName D1
SYMATTR Value 1N750
SYMBOL zener 992 416 R180
WINDOW 0 24 64 Left 2
WINDOW 3 24 0 Left 2
SYMATTR InstName D2
SYMATTR Value 1N750
SYMBOL res 1136 304 R90
WINDOW 0 0 56 VBottom 2
WINDOW 3 32 56 VTop 2
SYMATTR InstName R7
SYMATTR Value 1e5
SYMBOL Vcc 832 112 R0
SYMATTR InstName U10
SYMBOL res 176 -48 R0
SYMATTR InstName R8
SYMATTR Value 10k
SYMBOL voltage -464 160 R0
WINDOW 123 0 0 Left 0
WINDOW 39 24 124 Left 2
SYMATTR InstName V2
SYMATTR Value SINE(0 .1 250)
SYMATTR SpiceLine Rser=10k
SYMBOL cap 592 304 R90
WINDOW 0 0 32 VBottom 2
WINDOW 3 32 32 VTop 2
SYMATTR InstName C2
SYMATTR Value 1µ
TEXT -498 472 Left 2 !.tran 50m
