Version 4
SHEET 1 1044 692
WIRE 0 -96 -16 -96
WIRE 112 -96 80 -96
WIRE 272 -96 208 -96
WIRE 416 -96 352 -96
WIRE 528 -96 496 -96
WIRE 528 -80 528 -96
WIRE 112 32 112 -96
WIRE 208 32 208 -96
WIRE 16 64 -48 64
WIRE 16 80 16 64
WIRE 32 80 16 80
WIRE -48 144 -112 144
WIRE -16 144 -16 -96
WIRE 32 144 -16 144
WIRE -112 160 -112 144
WIRE 32 208 16 208
WIRE -384 224 -416 224
WIRE -240 224 -304 224
WIRE -48 224 -160 224
WIRE 16 224 16 208
WIRE 16 224 -48 224
WIRE -416 240 -416 224
WIRE 640 288 480 288
WIRE 544 336 544 240
WIRE 480 352 480 288
WIRE 512 352 480 352
WIRE 640 368 640 288
WIRE 640 368 576 368
WIRE 784 368 640 368
WIRE -304 384 -304 224
WIRE -32 384 -304 384
WIRE 272 384 272 256
WIRE 272 384 48 384
WIRE 512 384 272 384
WIRE 272 416 272 384
WIRE 544 416 544 400
WIRE 784 416 784 368
FLAG -112 160 0
FLAG 528 -80 0
FLAG -416 240 0
FLAG 272 496 0
FLAG 112 -176 0
FLAG 112 336 0
FLAG 544 496 0
FLAG 784 496 0
FLAG 544 160 0
SYMBOL ZZZ\\OpAmp\\lm13700 112 144 R0
SYMATTR InstName U1
SYMBOL res -64 48 R0
SYMATTR InstName R1
SYMATTR Value 500
SYMBOL res -64 128 R0
SYMATTR InstName R2
SYMATTR Value 540
SYMBOL res 96 -112 R90
WINDOW 0 0 56 VBottom 2
WINDOW 3 32 56 VTop 2
SYMATTR InstName R3
SYMATTR Value 10k
SYMBOL res -144 208 R90
WINDOW 0 0 56 VBottom 2
WINDOW 3 32 56 VTop 2
SYMATTR InstName R4
SYMATTR Value 10k
SYMBOL res 64 368 R90
WINDOW 0 0 56 VBottom 2
WINDOW 3 32 56 VTop 2
SYMATTR InstName R5
SYMATTR Value 10k
SYMBOL voltage 400 -96 R270
WINDOW 0 32 56 VTop 2
WINDOW 3 -32 56 VBottom 2
WINDOW 123 0 0 Left 0
WINDOW 39 0 0 Left 0
SYMATTR InstName V1
SYMATTR Value SINE(0 15 400)
SYMBOL res 368 -112 R90
WINDOW 0 0 56 VBottom 2
WINDOW 3 32 56 VTop 2
SYMATTR InstName R6
SYMATTR Value 18k
SYMBOL voltage -288 224 R90
WINDOW 0 -32 56 VBottom 2
WINDOW 3 32 56 VTop 2
WINDOW 123 0 0 Left 0
WINDOW 39 0 0 Left 0
SYMATTR InstName V2
SYMATTR Value SINE(0 1 4400)
SYMBOL res 288 512 R180
WINDOW 0 36 76 Left 2
WINDOW 3 36 40 Left 2
SYMATTR InstName R7
SYMATTR Value 10k
SYMBOL voltage 112 352 R180
WINDOW 0 -32 56 VBottom 2
WINDOW 3 32 56 VTop 2
WINDOW 123 0 0 Left 0
WINDOW 39 0 0 Left 0
SYMATTR InstName V3
SYMATTR Value 15
SYMBOL voltage 112 -80 R180
WINDOW 0 -32 56 VBottom 2
WINDOW 3 32 56 VTop 2
WINDOW 123 0 0 Left 0
WINDOW 39 0 0 Left 0
SYMATTR InstName V4
SYMATTR Value 15
SYMBOL ZZZ\\OpAmp\\LM358 544 368 R0
SYMATTR InstName U2
SYMBOL voltage 544 512 R180
WINDOW 0 -32 56 VBottom 2
WINDOW 3 32 56 VTop 2
WINDOW 123 0 0 Left 0
WINDOW 39 0 0 Left 0
SYMATTR InstName V5
SYMATTR Value 15
SYMBOL res 800 512 R180
WINDOW 0 36 76 Left 2
WINDOW 3 36 40 Left 2
SYMATTR InstName R8
SYMATTR Value 10k
SYMBOL voltage 544 256 R180
WINDOW 0 -32 56 VBottom 2
WINDOW 3 32 56 VTop 2
WINDOW 123 0 0 Left 0
WINDOW 39 0 0 Left 0
SYMATTR InstName V6
SYMATTR Value 15
TEXT -436 434 Left 2 !.tran 20m
