Version 4
SHEET 1 880 680
WIRE 144 64 112 64
WIRE 288 64 224 64
WIRE 112 176 112 64
WIRE 112 176 96 176
WIRE 144 176 112 176
WIRE 288 192 288 64
WIRE 288 192 208 192
WIRE 384 192 288 192
WIRE 496 192 464 192
WIRE 528 192 496 192
WIRE 624 192 608 192
WIRE 144 208 112 208
WIRE 496 224 496 192
WIRE 112 240 112 208
WIRE 112 240 -128 240
WIRE 176 240 176 224
WIRE 624 288 624 192
FLAG -64 176 0
FLAG -208 240 0
FLAG 496 288 0
FLAG 624 288 0
SYMBOL Vcc_ 176 272 R180
SYMATTR Value Vcc=-5
SYMATTR InstName U1
SYMBOL Vcc 176 96 R0
SYMATTR InstName U3
SYMBOL ZZZ\\OpAmp\\LM324 176 192 R0
SYMATTR InstName U2
SYMBOL res 240 48 R90
WINDOW 0 0 56 VBottom 2
WINDOW 3 32 56 VTop 2
SYMATTR InstName R1
SYMATTR Value 10k
SYMBOL res 112 160 R90
WINDOW 0 0 56 VBottom 2
WINDOW 3 32 56 VTop 2
SYMATTR InstName R2
SYMATTR Value 10k
SYMBOL voltage 32 176 R90
WINDOW 0 -32 56 VBottom 2
WINDOW 3 32 56 VTop 2
WINDOW 123 0 0 Left 0
WINDOW 39 0 0 Left 0
SYMATTR InstName V1
SYMATTR Value 1.125
SYMBOL voltage -112 240 R90
WINDOW 0 -32 56 VBottom 2
WINDOW 3 32 56 VTop 2
WINDOW 123 0 0 Left 0
WINDOW 39 0 0 Left 0
SYMATTR InstName V2
SYMATTR Value SINE(1.25 1.25 40)
SYMBOL res 480 176 R90
WINDOW 0 0 56 VBottom 2
WINDOW 3 32 56 VTop 2
SYMATTR InstName R3
SYMATTR Value 1k
SYMBOL cap 480 224 R0
SYMATTR InstName C1
SYMATTR Value 1µ
SYMBOL res 624 176 R90
WINDOW 0 0 56 VBottom 2
WINDOW 3 32 56 VTop 2
SYMATTR InstName R4
SYMATTR Value 5k
TEXT -262 312 Left 2 !.tran 100m
TEXT -288 -88 Left 2 ;The C1 and R4 represent a filtering capacitor and internal \nimpedance of the CV input of V2164 respectively.\nThe R3=1k represents the added resistance to have an effective\nlow pass filter with C1 to protect the CV input from noise
